%chk=gaussian.chk
%mem=1GB
%nproc=2
#HF/6-31g* nosymm iop(2/12=3,3/33=1) guess=only pop=full

[0] [0]

2   1   
c           -3.1712841   0.4099593   0.2319336
n           -0.6341410   0.0801347   0.0451432
h           -3.5658188   1.0653778   1.2352836
h           -3.8585262  -0.1093660  -0.6899194
h           -0.1125024  -0.5205066  -0.8139564
h            0.1412738   0.5051782   0.8126349
c           -3.1615778   0.4087367   0.2311944
n           -0.6418170   0.0810284   0.0457737
h           -3.5521698   1.0573667   1.2242784
h           -3.8419053  -0.1054432  -0.6810349
h           -0.1274374  -0.5211095  -0.8182504
h            0.1278531   0.5106118   0.8183027


