%chk=gaussian.chk
%mem=1GB
%nproc=2
# force td(singlet, root=1, nstates=2) lc-blyp/6-31g* scf=(tight,maxcycle=10000) iop(9/40=20) nosymm pop=full 

[0] [0]

1   1   
c           -3.1810506   0.4111954   0.2326738
n           -0.6263994   0.0792230   0.0445137
h           -3.5791393   1.0726116   1.2451246
h           -3.8744728  -0.1126778  -0.6976909
h           -0.0979880  -0.5190579  -0.8085119
h            0.1539184   0.4991541   0.8058423


