%chk=gaussian.chk
%mem=1GB
%nproc=2
%nproclinda=1
#HF/6-31g* nosymm iop(2/12=3,3/33=1) guess=only pop=full

[0] [0]

2   1   
c           -2.4296568   0.3811852   0.2130064
n           -1.1746520   0.1559854   0.0725588
h           -2.8056585   0.8622392   1.1152199
h           -3.1009308   0.0892632  -0.5922419
h           -0.8042914  -0.3306266  -0.7490910
h           -0.4951867   0.4609797   0.7721549
c           -2.4296595   0.3810544   0.2131855
n           -1.1745350   0.1558442   0.0725376
h           -2.8061054   0.8631772   1.1140422
h           -3.1014130   0.0901169  -0.5926702
h           -0.8044591  -0.3303995  -0.7500395
h           -0.4955614   0.4620201   0.7728361

