%chk=gaussian.chk
%mem=1GB
%nproc=2
# force td(singlet, root=1, nstates=2) cam-b3lyp/6-31g* scf=(tight,maxcycle=10000) iop(9/40=20) nosymm pop=full 

[0] [0]

1   1   
c           -0.9691691   0.1411401   0.0883089
n            0.3097272  -0.0441613  -0.0371799
h          -11.4559266   0.8036633   0.3797597
h          -11.2362971   2.0811850   1.2274741
h            0.4677060  -1.1007779  -0.0357055
h            0.7386343   0.9351336  -0.1503345


