%Nproc=4
%mem=800MB
%NoSave
%chk=s0.chk

#P hf/3-21G

S1_1--b3lyp---cc-pvdz

0  1
C    -0.21200     1.45252     0.00010
C     0.79621     0.49416     0.00018
C     0.52104    -0.83139    -0.00005
N    -0.66711    -1.41757    -0.00003
C    -1.67513    -0.56475    -0.00002
N    -1.48136     0.78260     0.00004
N     2.24346     0.66337    -0.00002
C     2.71593    -0.50544     0.00004
N     1.73615    -1.49309     0.00000
N    -2.94271    -1.01733    -0.00015
O    -0.20729     2.66049    -0.00015
H     3.77641    -0.63760     0.00011
H     1.88010    -2.47776    -0.00019
H    -2.24876     1.42552    -0.00040
H    -3.73757    -0.41907     0.00175
H    -3.07815    -2.00476    -0.00048
  
