%chk=gaussian.chk
%mem=1GB
%nproc=2
%nproclinda=1
#HF/6-31g* nosymm iop(2/12=3,3/33=1) guess=only pop=full

[0] [0]

2   1   
c           -2.4479187   0.3277590   0.2230187
n           -1.1874773   0.1525637   0.0927594
h           -2.8246003   0.9530212   1.0295854
h           -3.1338277  -0.1505673  -0.4725116
h           -0.7961682  -0.4270825  -0.6533319
h           -0.5131678   0.5838490   0.7291218
c           -2.4479098   0.3277576   0.2230023
n           -1.1874715   0.1525632   0.0927697
h           -2.8246486   0.9531190   1.0294774
h           -3.1339103  -0.1507032  -0.4723661
h           -0.7961654  -0.4269922  -0.6533647
h           -0.5130939   0.5836774   0.7291670

