%chk=gaussian.chk
%mem=1GB
%nproc=2
%nproclinda=1
#   b3lyp/6-31g* scf=(tight,maxcycle=10000) iop(9/40=20) nosymm pop=full 

[0] [0]

1   1   
c           -2.7646746  -0.3035078   1.0767215
n           -2.4308579  -1.7026411   1.5676618
h           -2.6889804   0.2957416   1.9604705
h           -3.1210837   0.4337961   0.1717645
h           -2.6496033  -2.7327209   0.9102532
h           -1.9542788  -2.3926377   2.2222609

--LINK1--
%chk=gaussian.chk
%mem=1GB
%nproc=2
%nproclinda=1
# force  b3lyp/ChkBasis scf=(tight,maxcycle=10000) iop(9/40=20) nosymm pop=full  geom=AllCheck Guess=Read 

--LINK1--
%chk=gaussian.chk
%mem=1GB
%nproc=2
%nproclinda=1
#   td(singlet, root=0, nstates=2) b3lyp/ChkBasis scf=(tight,maxcycle=10000) iop(9/40=20) nosymm pop=full  geom=AllCheck Guess=Read 

