%nproc=8
%mem=1GB
%nosave
%chk=PPE.chk
#p CAM-B3LYP/6-311G* TD=(Singlets,NStates=6) GFInput GFPrint POP=Full IOP(6/7=3,9/40=10) Scf=(MaxCycle=500)

PPE_VE

 0 1
 C      9.944147   -1.910085    0.000027
 C      8.957013   -0.938948    0.000035
 C      7.607079   -1.303508    0.000026
 C      7.271575   -2.660985    0.000021
 C      8.263660   -3.627024    0.000022
 C      9.601671   -3.255762    0.000023
 C      4.044974    3.852622   -0.000009
 C      2.710051    3.484036    0.000034
 C      2.355403    2.131145    0.000042
 C      3.360517    1.163858    0.000014
 C      4.705886    1.531975   -0.000033
 C      5.040678    2.889855   -0.000050
 C     -2.559867    1.994150    0.000094
 C     -3.888678    1.619390    0.000066
 C     -4.248670    0.267349   -0.000086
 C     -3.235103   -0.697124   -0.000210
 C     -1.906217   -0.322444   -0.000174
 C     -1.546555    1.029532   -0.000024
 C     -9.160583    0.135978    0.000016
 C    -10.492658   -0.241967    0.000035
 C    -10.838035   -1.586942    0.000055
 C     -9.842542   -2.555083    0.000061
 C     -8.508514   -2.184058    0.000049
 C     -8.151204   -0.831972    0.000021
 C      6.586798   -0.305587    0.000021
 C      5.725926    0.533781   -0.000057
 C      0.982537    1.742322    0.000071
 C     -0.175153    1.416615    0.000000
 C     -5.620027   -0.119461   -0.000103
 C     -6.777808   -0.445663   -0.000003
 H      7.990888   -4.676415    0.000011
 H      6.226723   -2.947890    0.000022
 H     10.376504   -4.014127    0.000015
 H     10.987455   -1.614866    0.000034
 H      9.221522    0.111814    0.000036
 H      3.093210    0.114761    0.000020
 H      1.931285    4.236931    0.000064
 H      4.312804    4.903062   -0.000025
 H      6.084709    3.178612   -0.000087
 H     -1.129368   -1.077484   -0.000273
 H     -3.502961   -1.746819   -0.000324
 H     -4.665570    2.374374    0.000157
 H     -2.292048    3.043881    0.000217
 H     -7.729683   -2.937334    0.000049
 H    -10.107231   -3.606545    0.000083
 H    -11.881791   -1.880363    0.000066
 H    -11.266226    0.517754    0.000023
 H     -8.888021    1.184673    0.000001
 

   
