%chk=gaussian.chk
%mem=1GB
%nproc=2
%nproclinda=1
#   b3lyp/6-31g* scf=(tight,maxcycle=10000) iop(9/40=20) nosymm pop=full 

[0] [0]

1   1   
c           -2.3927183   0.3813235   0.1093563
n           -1.2443361   0.2083512   0.1592733
h           -2.8408849   0.1617052   1.1173091
h           -2.4081357  -0.1013021  -0.8189348
h           -0.3669429   0.3596091  -0.7031469
h           -1.0449305   0.9447395   0.8916351

--LINK1--
%chk=gaussian.chk
%mem=1GB
%nproc=2
%nproclinda=1
# force  b3lyp/ChkBasis scf=(tight,maxcycle=10000) iop(9/40=20) nosymm pop=full  geom=AllCheck Guess=Read 

--LINK1--
%chk=gaussian.chk
%mem=1GB
%nproc=2
%nproclinda=1
#   td(singlet, root=0, nstates=2) b3lyp/ChkBasis scf=(tight,maxcycle=10000) iop(9/40=20) nosymm pop=full  geom=AllCheck Guess=Read 

