%chk=gaussian.chk
%mem=1GB
%nproc=2
%nproclinda=1
#HF/6-31g* nosymm iop(2/12=3,3/33=1) guess=only pop=full

[0] [0]

2   1   
c           -2.7646746  -0.3035078   1.0767215
n           -2.4308579  -1.7026411   1.5676618
h           -2.6889804   0.2957416   1.9604705
h           -3.1210837   0.4337961   0.1717645
h           -2.6496033  -2.7327209   0.9102532
h           -1.9542788  -2.3926377   2.2222609
c           -2.7679410  -0.2973939   1.0704429
n           -2.4275358  -1.7064122   1.5665866
h           -2.6997252   0.3115252   1.9599427
h           -3.1071058   0.4676935   0.1804810
h           -2.6487257  -2.7266677   0.9286491
h           -1.9251714  -2.4037678   2.2247388

