%chk=gaussian.chk
%mem=1GB
%nproc=2
#HF/6-31g* nosymm iop(2/12=3,3/33=1) guess=only pop=full

[0] [0]

2   1   
c           -0.9691691   0.1411401   0.0883089
n            0.3097272  -0.0441613  -0.0371799
h          -11.4559266   0.8036633   0.3797597
h          -11.2362971   2.0811850   1.2274741
h            0.4677060  -1.1007779  -0.0357055
h            0.7386343   0.9351336  -0.1503345
c           -0.9675576   0.1407640   0.0880903
n            0.3030826  -0.0431937  -0.0369099
h          -11.4360815   0.8148254   0.3899957
h          -11.2213457   2.0656935   1.2148534
h            0.4620785  -1.1059811  -0.0343806
h            0.7354360   0.9414560  -0.1466061


