   48
FINAL HEAT OF FORMATION = -1146.734210
 C     9.953439    -1.815354     0.000000
 C     8.965501    -0.851023     0.000000
 C     7.625404    -1.221368     0.000000
 C     7.293737    -2.571436     0.000000
 C     8.285595    -3.531653     0.000000
 C     9.616891    -3.156860     0.000000
 C     4.054437     3.918854     0.000000
 C     2.724623     3.550179     0.000000
 C     2.376197     2.204676     0.000000
 C     3.373921     1.240244     0.000000
 C     4.711386     1.609670     0.000000
 C     5.046196     2.958959     0.000000
 C    -2.533713     2.070232     0.000000
 C    -3.859962     1.699064     0.000000
 C    -4.215847     0.355053     0.000000
 C    -3.213745    -0.608603     0.000000
 C    -1.887602    -0.237422     0.000000
 C    -1.531915     1.106462     0.000000
 C    -9.124589     0.220397     0.000000
 C   -10.452636    -0.155685     0.000000
 C   -10.796378    -1.495445     0.000000
 C    -9.805267    -2.460207     0.000000
 C    -8.475630    -2.089514     0.000000
 C    -8.123803    -0.744537     0.000000
 C     6.592744    -0.220104     0.000000
 C     5.740808     0.605178     0.000000
 C     0.993137     1.813670     0.000000
 C    -0.148911     1.493970     0.000000
 C    -5.598499    -0.033274     0.000000
 C    -6.740141    -0.355233     0.000000
 H     8.018371    -4.572120     0.000000
 H     6.260378    -2.861682     0.000000
 H    10.387616    -3.905161     0.000000
 H    10.986068    -1.519217     0.000000
 H     9.226409     0.190154     0.000000
 H     3.108998     0.201177     0.000000
 H     1.954122     4.297121     0.000000
 H     4.319355     4.959506     0.000000
 H     6.079662     3.247639     0.000000
 H    -1.120736    -0.988091     0.000000
 H    -3.479445    -1.648306     0.000000
 H    -4.626908     2.449679     0.000000
 H    -2.267467     3.109835     0.000000
 H    -7.705601    -2.837263     0.000000
 H   -10.067569    -3.501935     0.000000
 H   -11.830445    -1.785946     0.000000
 H   -11.218897     0.597133     0.000000
 H    -8.856498     1.259772     0.000000
